"""
The 'text_indentation' module

Using 'text_indentation':

Import the text_indentation function:
>>> text_indentation = __import__('5-text_indentation').text_indentation

Test with regular text:
>>> text_indentation("Hello world. This is a test. Are you okay? Yes.")
Hello world.

This is a test.

Are you okay?

Yes.

Test with text that is a string:
>>> text_indentation("This is a string with different punctuations. "
... "Here is another? And one more: Done!")
This is a string with different punctuations.

Here is another?

And one more:

Done!

Test with text that is not a string:
>>> try:
...     text_indentation(123)
... except TypeError as e:
...     print(e)
text must be a string

>>> try:
...     text_indentation({"top": 1, "bottom": 2})
... except TypeError as e:
...     print(e)
text must be a string

>>> try:
...     text_indentation(None)
... except TypeError as e:
...     print(e)
text must be a string

Test with text containing a blank line:
>>> text_indentation("This is a test.\n\nDoes it work? \n\nYes, it does.")
This is a test.


Does it work?


Yes, it does.

Test with missing argument:
>>> try:
...     text_indentation()
... except TypeError as e:
...     print(e)
text_indentation() missing 1 required positional argument: 'text'

Test with leading and trailing spaces:
>>> text_indentation("   Hi there.")
Hi there.
<BLANKLINE>

>>> text_indentation("          ")
<BLANKLINE>

>>> text_indentation("Hello.   ")
Hello.
<BLANKLINE>

>>> text_indentation("    Good morning.    This is good.   ")
Good morning.
<BLANKLINE>
This is good.
<BLANKLINE>

Test with text not ending with punctuation:
>>> text_indentation("I love cooking, it's my hobby")
I love cooking, it's my hobby

Test with new lines within the string:
>>> text_indentation("Let's print a new-line! Here goes:\nPrinted.")
Let's print a new-line! Here goes:
<BLANKLINE>
Printed.
<BLANKLINE>

>>> text_indentation("\n\n\n We just printed three new lines.")
<BLANKLINE>
<BLANKLINE>
<BLANKLINE>
We just printed three new lines.
<BLANKLINE>

>>> text_indentation("A sneaky \n new line.")
A sneaky 
new line.
<BLANKLINE>

An example:
>>> text_indentation("Lorem ipsum dolor sit amet, consectetur adipiscing "
... "elit. Quonam modo? Utrum igitur tibi litteram videor an totas paginas "
... "commovere? Non autem hoc: igitur ne illud quidem. Fortasse id optimum, "
... "sed ubi illud: Plus semper voluptatis? Teneo, inquit, finem illi videri "
... "nihil dolere. Transfer idem ad modestiam vel temperantiam, quae est "
... "moderatio cupiditatum rationi oboediens. Si id dicis, vicimus. Inde "
... "sermone vario sex illa a Dipylo stadia confecimus. Sin aliud quid "
... "voles, postea. Quae animi affectio suum cuique tribuens atque hanc, "
... "quam dico. Utinam quidem dicerent alium alio beatiorem! Iam ruinas "
... "videres") # doctest: +NORMALIZE_WHITESPACE
Lorem ipsum dolor sit amet, consectetur adipiscing elit.
<BLANKLINE>
Quonam modo?
<BLANKLINE>
Utrum igitur tibi litteram videor an totas paginas commovere?
<BLANKLINE>
Non autem hoc:
<BLANKLINE>
igitur ne illud quidem.
<BLANKLINE>
Fortasse id optimum, sed ubi illud:
<BLANKLINE>
Plus semper voluptatis?
<BLANKLINE>
Teneo, inquit, finem illi videri nihil dolere.
<BLANKLINE>
Transfer idem ad modestiam vel temperantiam,
quae est moderatio cupiditatum rationi oboediens.
<BLANKLINE>
Si id dicis, vicimus.
<BLANKLINE>
Inde sermone vario sex illa a Dipylo stadia confecimus.
<BLANKLINE>
Sin aliud quid voles, postea.
<BLANKLINE>
Quae animi affectio suum cuique tribuens atque hanc, quam dico.
<BLANKLINE>
Utinam quidem dicerent alium alio beatiorem! Iam ruinas videres
"""
